/*--------------------------------*- C++ -*----------------------------------*\
| =========                 |                                                 |
| \\      /  F ield         | OpenFOAM: The Open Source CFD Toolbox           |
|  \\    /   O peration     | Version:  4.1                                   |
|   \\  /    A nd           | Web:      www.OpenFOAM.org                      |
|    \\/     M anipulation  |                                                 |
\*---------------------------------------------------------------------------*/
FoamFile
{
    version     2.0;
    format      ascii;
    class       featureEdgeMesh;
    location    "constant/triSurface";
    object      Marylebone.eMesh;
}
// * * * * * * * * * * * * * * * * * * * * * * * * * * * * * * * * * * * * * //


// points:

285
(
(543.046 -202.343 50)
(536.753 -194.572 50)
(528.981 -200.865 50)
(535.274 -208.636 50)
(552.114 -204.007 24)
(517.92 -231.697 24)
(502.816 -213.046 24)
(537.01 -185.356 24)
(502.816 -213.046 0)
(537.01 -185.356 0)
(552.114 -204.007 0)
(517.92 -231.697 0)
(544.836 227.34 0)
(525.246 231.035 0)
(525.246 231.035 19)
(544.836 227.34 19)
(625.281 -103.839 19)
(625.281 -103.839 0)
(616.034 -111.327 0)
(616.034 -111.327 19)
(490.547 43.6354 0)
(490.547 43.6354 19)
(583.469 -97.8085 19)
(479.694 30.3428 0)
(479.694 30.3428 19)
(583.469 -97.8085 0)
(545.311 -128.708 0)
(545.311 -128.708 19)
(462.492 -26.4358 19)
(462.492 -26.4358 0)
(467.104 20.1478 0)
(467.104 20.1478 19)
(638.912 -166.275 0)
(627.898 -152.675 0)
(627.898 -152.675 19)
(638.912 -166.275 19)
(608.292 -191.07 19)
(608.292 -191.07 0)
(597.279 -177.47 0)
(597.279 -177.47 19)
(602.977 -121.9 0)
(591.964 -108.3 0)
(591.964 -108.3 19)
(602.977 -121.9 19)
(572.358 -146.695 19)
(572.358 -146.695 0)
(561.345 -133.095 0)
(561.345 -133.095 19)
(380.303 -256.409 0)
(486.547 -200.742 22)
(486.547 -200.742 0)
(380.303 -256.409 22)
(396.763 -287.859 0)
(396.763 -287.859 22)
(497.187 -285.545 0)
(497.187 -285.545 22)
(524.99 -170.512 0)
(510.201 -152.249 0)
(510.201 -152.249 22)
(524.99 -170.512 22)
(376.275 -248.734 0)
(376.275 -248.734 22)
(365.501 -228.12 0)
(365.501 -228.12 22)
(353.015 -234.629 26)
(312.302 -256.017 0)
(312.302 -256.017 26)
(353.015 -234.629 0)
(384.354 -294.305 0)
(384.354 -294.305 26)
(343.578 -315.616 0)
(343.578 -315.616 26)
(319.383 -170.374 0)
(278.607 -191.685 0)
(278.607 -191.685 26)
(319.383 -170.374 26)
(342.541 -214.544 0)
(342.541 -214.544 26)
(301.828 -235.932 26)
(301.828 -235.932 0)
(463.632 -94.7406 0)
(332.04 -163.599 0)
(332.04 -163.599 26)
(463.632 -94.7406 26)
(495.664 -134.297 0)
(495.664 -134.297 26)
(354.95 -208.098 0)
(354.95 -208.098 26)
(331.621 -85.0606 0)
(331.621 -85.0606 64)
(342.634 -98.6607 64)
(342.634 -98.6607 0)
(320.796 -116.345 0)
(320.796 -116.345 64)
(309.783 -102.744 64)
(309.783 -102.744 0)
(350.738 -69.5793 0)
(350.738 -69.5793 64)
(361.751 -83.1794 64)
(361.751 -83.1794 0)
(346.753 -95.3252 0)
(346.753 -95.3252 64)
(335.74 -81.7252 0)
(335.74 -81.7252 64)
(377.092 -54.9297 0)
(377.092 -54.9297 15)
(406.349 -74.2155 0)
(406.349 -74.2155 15)
(414.027 -83.6967 15)
(414.027 -83.6967 0)
(387.06 -105.534 0)
(387.06 -105.534 15)
(379.382 -96.0529 15)
(379.382 -96.0529 0)
(364.891 -64.81 0)
(364.891 -64.81 15)
(320.964 -55.2161 0)
(360.521 -23.1837 20)
(360.521 -23.1837 0)
(320.964 -55.2161 20)
(329.837 -66.1738 0)
(329.837 -66.1738 20)
(369.394 -34.1414 0)
(369.394 -34.1414 20)
(451.8 -80.1303 0)
(378.988 9.78553 0)
(378.988 9.78553 24)
(451.8 -80.1303 24)
(434.082 -94.4788 0)
(434.082 -94.4788 24)
(361.269 -4.56297 0)
(361.269 -4.56297 24)
(512.363 246.467 0)
(356.934 120.602 0)
(356.934 120.602 31.8)
(512.363 246.467 31.8)
(480.837 56.1031 0)
(480.837 56.1031 31.8)
(437.55 21.05 31.8)
(437.55 21.05 0)
(235.705 -131.077 0)
(371.863 13.0229 0)
(371.863 13.0229 21)
(235.705 -131.077 21)
(207.008 -95.6396 0)
(207.008 -95.6396 21)
(359.717 28.0219 0)
(359.717 28.0219 21)
(302.057 1.66048 0)
(267.822 43.9372 0)
(267.822 43.9372 15)
(302.057 1.66048 15)
(197.064 -83.3607 0)
(197.064 -83.3607 15)
(162.829 -41.084 0)
(162.829 -41.084 15)
(276.577 55.5307 0)
(312.015 84.2277 20)
(312.015 84.2277 0)
(276.577 55.5307 20)
(308.609 15.9739 20)
(308.609 15.9739 0)
(344.047 44.6709 0)
(344.047 44.6709 20)
(110.896 22.8899 0)
(155.97 59.3905 20.8)
(155.97 59.3905 0)
(110.896 22.8899 20.8)
(145.068 -19.3091 0)
(145.068 -19.3091 20.8)
(190.142 17.1915 0)
(190.142 17.1915 20.8)
(109.086 117.288 0)
(64.0114 80.7873 0)
(64.0114 80.7873 17.6)
(109.086 117.288 17.6)
(146.656 70.8923 17.6)
(146.656 70.8923 0)
(101.582 34.3917 0)
(101.582 34.3917 17.6)
(125.406 130.504 0)
(170.403 166.941 16.8)
(170.403 166.941 0)
(125.406 130.504 16.8)
(207.092 29.6301 0)
(207.092 29.6301 16.8)
(252.088 66.0677 0)
(252.088 66.0677 16.8)
(235.852 86.1181 0)
(235.852 86.1181 16.8)
(180.031 155.051 0)
(180.031 155.051 16.8)
(185.255 148.601 24)
(164.816 132.049 0)
(164.816 132.049 24)
(185.255 148.601 0)
(229.37 94.1227 24)
(229.37 94.1227 0)
(208.931 77.5716 24)
(208.931 77.5716 0)
(215.903 202.757 0)
(183.185 176.263 0)
(183.185 176.263 23)
(215.903 202.757 23)
(297.966 101.417 0)
(297.966 101.417 23)
(265.248 74.923 0)
(265.248 74.923 23)
(515.768 314.72 0)
(402.616 223.091 0)
(402.616 223.091 27.4)
(515.768 314.72 27.4)
(533.452 292.882 0)
(533.452 292.882 27.4)
(420.3 201.253 0)
(420.3 201.253 27.4)
(499.217 335.159 0)
(386.065 243.53 0)
(386.065 243.53 20.4)
(499.217 335.159 20.4)
(394.938 232.572 0)
(394.938 232.572 20.4)
(323.615 289.981 0)
(256.858 235.922 0)
(256.858 235.922 31)
(323.615 289.981 31)
(357.85 247.704 0)
(357.85 247.704 31)
(291.094 193.646 0)
(291.094 193.646 31)
(368.346 229.182 0)
(300.19 173.99 0)
(300.19 173.99 30)
(368.346 229.182 30)
(402.581 186.905 0)
(402.581 186.905 30)
(334.425 131.713 0)
(334.425 131.713 30)
(460.027 -3.21133 22)
(536.753 -194.572 24)
(528.981 -200.865 24)
(535.274 -208.636 24)
(543.046 -202.343 24)
(509.864 38.69 0)
(509.864 38.69 19)
(488.06 -5.73112 0)
(488.06 -5.73112 19)
(398.111 -80.8863 15)
(398.111 -80.8863 0)
(385.91 -90.7667 0)
(385.91 -90.7667 15)
(207.253 62.9591 0)
(207.253 62.9591 16.8)
(151.432 131.892 16.8)
(151.432 131.892 0)
(458.935 -3.09651 21.9568)
(447.689 -9.82704 0)
(449.722 -12.6876 0)
(452.402 -14.9527 0)
(455.562 -16.4801 0)
(468.838 -14.0914 0)
(471.267 -11.5585 0)
(459.002 -17.1737 0)
(472.989 -8.5011 0)
(462.506 -16.9901 0)
(473.898 -5.11135 0)
(465.855 -15.9406 0)
(473.934 -1.60221 0)
(473.097 1.80582 0)
(471.439 4.8986 0)
(469.064 7.48181 0)
(466.12 9.39313 0)
(462.794 10.5125 0)
(459.294 10.7695 0)
(455.841 10.148 0)
(452.65 8.68717 0)
(449.922 6.47867 0)
(447.83 3.66132 0)
(446.504 0.412136 0)
(446.028 -3.06473 0)
(446.431 -6.5508 0)
(494.019 -214.894 0)
(494.019 -214.894 22)
(484.932 305.448 0)
(484.932 305.448 20.4)
)


// edges:

413
(
(256 257)
(257 258)
(258 259)
(260 261)
(259 262)
(261 263)
(262 264)
(263 265)
(264 266)
(265 267)
(266 260)
(267 268)
(268 269)
(269 270)
(270 271)
(271 272)
(272 273)
(273 274)
(274 275)
(275 276)
(276 277)
(277 278)
(278 279)
(279 280)
(280 256)
(1 2)
(0 1)
(2 3)
(3 0)
(240 2)
(1 239)
(241 3)
(0 242)
(5 4)
(6 5)
(7 6)
(4 7)
(7 9)
(9 8)
(8 6)
(4 10)
(10 9)
(11 5)
(8 11)
(11 10)
(13 14)
(12 13)
(15 12)
(14 15)
(243 12)
(15 244)
(244 16)
(16 17)
(17 243)
(18 17)
(19 18)
(16 19)
(20 18)
(21 20)
(19 21)
(13 20)
(21 14)
(23 24)
(24 22)
(22 25)
(25 23)
(26 25)
(27 26)
(22 27)
(27 28)
(28 29)
(29 26)
(245 29)
(28 246)
(30 245)
(31 30)
(246 31)
(23 30)
(31 24)
(33 34)
(32 33)
(35 32)
(34 35)
(35 36)
(36 37)
(37 32)
(38 37)
(39 38)
(36 39)
(39 34)
(33 38)
(41 42)
(40 41)
(43 40)
(42 43)
(43 44)
(44 45)
(45 40)
(46 45)
(47 46)
(44 47)
(47 42)
(41 46)
(49 50)
(50 48)
(48 51)
(51 49)
(48 52)
(52 53)
(53 51)
(52 54)
(54 55)
(55 53)
(54 281)
(282 55)
(49 282)
(281 50)
(57 58)
(56 57)
(59 56)
(58 59)
(60 56)
(61 60)
(59 61)
(62 60)
(63 62)
(61 63)
(57 62)
(63 58)
(65 66)
(66 64)
(64 67)
(67 65)
(68 67)
(69 68)
(64 69)
(70 68)
(71 70)
(69 71)
(71 66)
(65 70)
(73 74)
(72 73)
(75 72)
(74 75)
(76 72)
(77 76)
(75 77)
(77 78)
(78 79)
(79 76)
(73 79)
(78 74)
(81 82)
(80 81)
(83 80)
(82 83)
(84 80)
(85 84)
(83 85)
(86 84)
(87 86)
(85 87)
(87 82)
(81 86)
(88 89)
(89 90)
(90 91)
(91 88)
(92 91)
(93 92)
(90 93)
(93 94)
(94 95)
(95 92)
(94 89)
(88 95)
(96 97)
(97 98)
(98 99)
(99 96)
(100 99)
(101 100)
(98 101)
(102 100)
(103 102)
(101 103)
(96 102)
(103 97)
(104 105)
(105 247)
(248 104)
(106 248)
(107 106)
(247 107)
(107 108)
(108 109)
(109 106)
(110 109)
(111 110)
(108 111)
(111 112)
(112 113)
(113 110)
(249 113)
(112 250)
(114 249)
(115 114)
(250 115)
(115 105)
(104 114)
(117 118)
(118 116)
(116 119)
(119 117)
(120 121)
(116 120)
(121 119)
(122 123)
(120 122)
(123 121)
(122 118)
(117 123)
(125 126)
(124 125)
(127 124)
(126 127)
(128 124)
(129 128)
(127 129)
(130 128)
(131 130)
(129 131)
(125 130)
(131 126)
(133 134)
(132 133)
(135 132)
(134 135)
(136 132)
(137 136)
(135 137)
(137 138)
(138 139)
(139 136)
(138 134)
(133 139)
(141 142)
(140 141)
(143 140)
(142 143)
(144 140)
(145 144)
(143 145)
(146 144)
(147 146)
(145 147)
(141 146)
(147 142)
(149 150)
(148 149)
(151 148)
(150 151)
(152 148)
(153 152)
(151 153)
(154 152)
(155 154)
(153 155)
(149 154)
(155 150)
(157 158)
(158 156)
(156 159)
(159 157)
(160 159)
(161 160)
(156 161)
(161 162)
(162 163)
(163 160)
(162 158)
(157 163)
(165 166)
(166 164)
(164 167)
(167 165)
(168 169)
(164 168)
(169 167)
(170 171)
(168 170)
(171 169)
(170 166)
(165 171)
(173 174)
(172 173)
(175 172)
(174 175)
(175 176)
(176 177)
(177 172)
(178 177)
(179 178)
(176 179)
(173 178)
(179 174)
(181 182)
(182 180)
(180 183)
(183 181)
(180 184)
(184 185)
(185 183)
(184 186)
(186 187)
(187 185)
(186 188)
(188 189)
(189 187)
(188 251)
(252 189)
(253 252)
(251 254)
(254 190)
(190 191)
(191 253)
(190 182)
(181 191)
(193 194)
(194 192)
(192 195)
(195 193)
(192 196)
(196 197)
(197 195)
(196 198)
(198 199)
(199 197)
(193 199)
(198 194)
(201 202)
(200 201)
(203 200)
(202 203)
(204 200)
(205 204)
(203 205)
(206 204)
(207 206)
(205 207)
(201 206)
(207 202)
(209 210)
(208 209)
(211 208)
(210 211)
(212 208)
(213 212)
(211 213)
(214 212)
(215 214)
(213 215)
(209 214)
(215 210)
(217 218)
(216 217)
(219 216)
(218 219)
(283 216)
(219 284)
(220 283)
(221 220)
(284 221)
(217 220)
(221 218)
(223 224)
(222 223)
(225 222)
(224 225)
(226 222)
(227 226)
(225 227)
(228 226)
(229 228)
(227 229)
(229 224)
(223 228)
(231 232)
(230 231)
(233 230)
(232 233)
(234 230)
(235 234)
(233 235)
(236 234)
(237 236)
(235 237)
(231 236)
(237 232)
(239 240)
(240 241)
(242 239)
(241 242)
(244 243)
(246 245)
(247 248)
(250 249)
(251 252)
(254 253)
2{238}
(255 238)
(238 255)
)

// * * * * * * * * * * * * * * * * * * * * * * * * * * * * * * * * * * * * * //


// ************************************************************************* //
