/*--------------------------------*- C++ -*----------------------------------*\
| =========                 |                                                 |
| \\      /  F ield         | OpenFOAM: The Open Source CFD Toolbox           |
|  \\    /   O peration     | Version:  4.1                                   |
|   \\  /    A nd           | Web:      www.OpenFOAM.org                      |
|    \\/     M anipulation  |                                                 |
\*---------------------------------------------------------------------------*/
FoamFile
{
    version     2.0;
    format      ascii;
    class       dictionary;
    object      fvSolution;
}
// * * * * * * * * * * * * * * * * * * * * * * * * * * * * * * * * * * * * * //

solvers
{
    "p|pFinal"
    {
        solver          GAMG;
        smoother        DIC;
        tolerance       1e-6;
        relTol          0.1;
    }

    "(U|k|omega|epsilon|T)"
    {
        solver          GAMG;
        smoother        symGaussSeidel;
        tolerance       1e-6;
        relTol          0.1;
    }
}

PISO
{
    nCorrectors     0;
    nNonOrthogonalCorrectors 1;
    pRefCell        0;
    pRefValue       0;
}


SIMPLE
{
    nNonOrthogonalCorrectors 1;
    pRefCell        0;
    pRefValue       0;

}

potentialFlow
{
    nNonOrthogonalCorrectors 10;
}

residualControl
{
  p               1e-5;
  U               1e-5;
 "(k|omega|epsilon)" 1e-5;
}


relaxationFactors
{
    fields
    {
        p               0.3;
    }
    equations
    {
        U               0.7;
        "(k|omega|epsilon|T).*" 0.7;
    }
}

// ************************************************************************* //
