/*--------------------------------*- C++ -*----------------------------------*\
| =========                 |                                                 |
| \\      /  F ield         | OpenFOAM: The Open Source CFD Toolbox           |
|  \\    /   O peration     | Version:  2.3.0                                 |
|   \\  /    A nd           | Web:      www.OpenFOAM.org                      |
|    \\/     M anipulation  |                                                 |
\*---------------------------------------------------------------------------*/
FoamFile
{
    version     2.0;
    format      ascii;
    class       dictionary;
    object      blockMeshDict;
}

// * * * * * * * * * * * * * * * * * * * * * * * * * * * * * * * * * * * * * //

convertToMeters 1;

vertices
(
    (0. 600. 0.)
    (0. -600. 0.)
    (1600. -600. 0.)
    (1600. 600. 0.)
    (0. 600. 320.)
    (0. -600. 320.)
    (1600. -600. 320.)
    (1600. 600. 320.)
    
);

blocks
(
    hex (0 1 2 3 4 5 6 7) (80 60 16) simpleGrading (1. 1. 80.)
);

edges
(
);

boundary
(
    inlet
    {
        type patch;
        faces
        (
            (0 1 5 4)
            
        );
    }
    outlet
    {
        type patch;
        faces
        (
            (2 3 7 6)
        );
    }
    symm
    {
        type patch;
        faces
        (
            (1 2 6 5)
	    (0 4 7 3)
	    (4 5 6 7)        
	);
    }
    ground
    {
        type wall;
        faces
        (
            (0 3 2 1)
        );
    }
    
);

// ************************************************************************* //
